simulator lang=spectre insensitive=yes 
model modn bsim4  { 
    1:  type=n
+ drout=0.5  saref=1e-05  pbsws=0.32
+ llc=0.0  pdiblcb=0.0  xw=0.0
+ cdsc=0.0  clc=1e-07  minv=-0.34
+ pbswgd=0.952  cdscb=0.0  toxe=3.981e-09
+ cjd=1e-10  cjswgs=3.82e-10  binunit=2.0
+ jtsswgs=1.09e-09  cigsd=3.925e-20  wlodku0=1.0
+ tpbsw=0.000894  rsw=90.88  njd=1.0
+ w0=0.0  pdiblc1=0.0  dwb=0.0
+ igbmod=0.0  dmdg=0.0  delta=0.005
+ wlodvth=1.0  etab=-0.308  permod=1.0
+ tnjtsswg=1.08  dlcig=2.5e-09  rshg=8.23
+ xgl=-3.1e-08  acde=0.4  capmod=2.0
+ noia=1.25e+42  tcjswg=0.00088  cgdo=1e-10
+ rbdb=50.0  cigbinv=0.006  jswgs=6.9e-13
+ wlod=5e-07  xrcrg2=1.0  jsd=2.85e-07
+ prt=0.0  minr=0.001  dmci=3.15e-07
+ ww=0.0  cigbacc=0.2809  wlc=0.0
+ dwj=0.0  dvt1w=0.0  mjswgd=0.541
+ aigbacc=0.01213  beta0=17.8  a1=0.0
+ alpha0=1.454e-07  dvt0=0.09708  lln=1.0
+ aigc=0.01  trnqsmod=0.0  cjs=1e-10
+ lodeta0=2.0  cf=1.0  ijthsfwd=0.01
+ ckappad=0.6  rbsb=50.0  xtsswgd=0.2886
+ ud=0.0  epsrox=3.9  rbpd=50.0
+ tempmod=0.0  alpha1=2.295  pbd=0.6882682
+ tvoff=0.0015  xtid=3.0  acnqsmod=0.0
+ nigbacc=4.05  rgatemod=0.0  cgbo=0.0
+ rsh=7.28  jtsswgd=1.09e-09  ngate=9e+19
+ tcjsw=0.000809  poxedge=1.0  xtsswgs=0.2886
+ mjswd=0.202  xrcrg1=12.0  pditsl=0.0
+ noff=1.973  lpeb=2.178e-08  ckappas=0.6
+ noib=7e+23  dmcgt=0.0  dsub=0.633
+ ll=0.0  cgso=1e-10  vtsswgs=10.0
+ jss=2.85e-07  ntox=1.0  dvtp1=0.0
+ mobmod=0.0  njs=1.0  cigc=1.515e-05
+ cjswd=1.185e-10  voffcv=-0.0904  mjsws=0.202
+ nigbinv=1.0  xl=-1.5e-08  ef=0.904
+ wl=0.0  rbodymod=0.0  lwc=0.0
+ wr=1.0  jswd=6.9e-13  pbs=0.6882682
+ dvt2w=0.0  wln=1.0  cdscd=0.0
+ ijthdrev=0.01  dvt0w=0.0  jsws=6.9e-13
+ nigc=1.0  b1=0.0  lint=2.595e-08
+ rbpb=50.0  noic=60800000.0  egidl=0.2624
+ wwc=0.0  dlc=2.595e-08  pbswgs=0.952
+ vtsswgd=10.0  fprout=0.0  lwn=1.0
+ lwl=0.0  ku0we=0.0  rgeomod=1.0
+ rbps=50.0  stk2=2.5e-09  k3=-3.7
+ dwg=0.0  bigc=0.00144  llodku0=1.0
+ bigbinv=0.03  tku0=0.03  xtis=3.0
+ steta0=-1.1e-10  wec=0.0  pscbe2=1e-20
+ pigcd=2.171  dvt1=0.3053  em=30000000.0
+ ijthdfwd=0.01  lodk2=1.0  xj=1.6e-07
+ ijthsrev=0.01  cle=0.6  aigbinv=0.35
+ njtsswg=11.6  tnom=25.0  ndep=5.8e+17
+ mjs=0.359  cgidl=0.25  eigbinv=1.1
+ xjbvd=1.0  phin=0.0  prwg=0.0
+ nsd=1e+20  toxref=3e-09  wwlc=0.0
+ mjswgs=0.541  lw=0.0  bigbacc=0.006537
+ agidl=2.593e-09  wpemod=1.0  dwc=0.0
+ cgdl=1e-10  tpbswg=0.00133  wint=1.02e-08
+ jswgd=6.9e-13  xgw=0.0  a2=0.995
+ dvtp0=1.46e-06  lpe0=9.921e-09  kt1l=0.0
+ k1=0.448  gbmin=1e-12  dmcg=2.05e-07
+ paramchk=1.0  kvsat=0.4  tpb=0.00149
+ voffl=-1.22e-09  xpart=1.0  pbswd=0.32
+ pscbe1=450000000.0  wwl=0.0  cjswgd=3.82e-10
+ ngcon=1.0  mjd=0.359  dvt2=-0.6939
+ llodvth=1.0  pvag=0.6279  k2we=0.0038
+ diomod=1.0  sbref=1e-05  rdsw=200.0
+ tcj=0.000905  rdsmod=1.0  aigsd=0.008379
+ bvs=11.25  dtox=5.958e-10  bgidl=1850800000.0
+ prwb=0.0  wwn=1.0  cgsl=1e-10
+ moin=5.346  bvd=11.25  version=4.5
+ pditsd=0.0  scref=1e-06  bigsd=0.0002699
+ rdw=90.88  igcmod=0.0  b0=0.0
+ lwlc=0.0  fnoimod=1.0  toxm=3.981e-09
+ pdits=0.0  web=0.0  xjbvs=1.0
+ k3b=1.2  cjsws=1.185e-10  at=117832.01302679551
+ lat=0.00033012614948301736  wat=-8.394395758982792e-06  pat=-1.345393144314971e-13
+ ua=-1.1120551629009633e-09  lua=5.124187457468373e-18  wua=-9.4242054583481e-19
+ pua=1.1288651552566356e-26  ub=2.3265130131232163e-18  lub=-4.282339003646499e-27
+ wub=9.939722366429929e-28  pub=-9.89704342830647e-36  kvth0=2.1999999937700907e-09
+ lkvth0=-9.99999999999955e-09  wkvth0=2.2e-06  pkvth0=-5.0000000000004154e-14
+ pdiblc2=0.0009754696792055897  lpdiblc2=-9.392793198313572e-12  wpdiblc2=-3.52862070662942e-14
+ ppdiblc2=-6.121720906972646e-21  nfactor=0.9497263933886516  lnfactor=-1.1347592247075805e-10
+ wnfactor=-6.476063726757498e-10  pnfactor=-9.698076200688168e-19  width=0.00091006
+ lwidth=-0.0  wwidth=-9.0273009e-09  pwidth=0.0
+ cit=0.0008281621613595506  lcit=7.563397030336266e-12  wcit=-2.9823353629252735e-13
+ pcit=2.6727857282576903e-21  length=3.0000000000000008e-05  llength=-2.0000000000000008e-10
+ wlength=-2.2522061369436854e-26  plength=2.2522061369436863e-31  u0=0.030523928894704774
+ lu0=4.1545284556203094e-11  wu0=-5.5484192389102875e-12  pu0=1.0390290138100353e-19
+ ags=0.5008130620969888  lags=-1.8624235543826251e-09  wags=5.3014477201990196e-11
+ pags=3.1990504659408392e-18  ute=-1.811476349295795  lute=-4.289372499832794e-09
+ wute=-3.439952506789508e-10  pute=2.2499233458529013e-18  ku0=-3.1999999990798564e-08
+ lku0=1.9999999999999983e-07  wku0=6.999999999999999e-07  pku0=-4.9999999999998525e-14
+ voff=-0.1305488871465572  lvoff=-2.2401163237620207e-11  wvoff=6.490617843561544e-12
+ pvoff=-1.230902217689511e-19  eta0=0.2277358920531289  leta0=-5.152488839269334e-10
+ weta0=-1.166017026332833e-10  peta0=-1.0044992126643205e-18  kt1=-0.24612438952578905
+ lkt1=1.7141048094950467e-10  wkt1=-3.692302058594486e-11  pkt1=4.671610764807931e-19
+ kt2=-0.05519139005583587  lkt2=-3.012927552185798e-12  wkt2=-2.647565361539746e-13
+ pkt2=-6.520525272010259e-20  kvth0we=0.003492662267580879  lkvth0we=1.024354168937805e-12
+ wkvth0we=1.3427656283189606e-14  pkvth0we=-3.752164427049036e-21  vth0=0.43952844274919833
+ lvth0=3.15712946841681e-11  wvth0=-1.9205918710379728e-11  pvth0=4.547993250908951e-19
+ a0=1.072430523366358  la0=-6.087324957005845e-10  wa0=-7.795732082086041e-11
+ pa0=-2.2539431284040553e-18  keta=-0.05139791384277191  lketa=4.5874160555060215e-10
+ wketa=-2.0932202997724472e-11  pketa=3.550163273867193e-19  uc1=-8.072156970848595e-11
+ luc1=4.33898195786382e-19  wuc1=-7.136474138586866e-20  puc1=1.623846261630773e-27
+ ub1=-4.429906354722726e-18  lub1=6.419825331712415e-28  wub1=-2.205318973037961e-28
+ pub1=1.1220517275968066e-35  ua1=2.341850863403034e-09  lua1=-6.292263453935463e-18
+ wua1=-3.1492322742867683e-19  pua1=-5.8916570403832514e-27  pclm=0.7188316773402809
+ lpclm=7.647183449454443e-10  wpclm=7.799634698348743e-11  ppclm=1.4896001977151593e-18
+ k2=0.044341741344662455  lk2=5.227372144207317e-12  wk2=-2.4387774943561806e-12
+ pk2=-6.493200662580965e-20  vsat=73329.36222754557  lvsat=-7.354414057491704e-06
+ wvsat=4.9433737678302534e-06  pvsat=1.2651997115546555e-14  uc=1.9164814850975925e-10
+ luc=4.331034014439737e-19  wuc=1.7662210386485581e-19  puc=1.4387485152751236e-27
+ lmin=1e-005  lmax=2e-05  wmin=1.003e-005
+ wmax=90.003e-05  

    2:  type=n
+ drout=0.5  saref=1e-05  pbsws=0.32
+ llc=0.0  pdiblcb=0.0  xw=0.0
+ cdsc=0.0  clc=1e-07  minv=-0.34
+ pbswgd=0.952  cdscb=0.0  toxe=3.981e-09
+ cjd=1e-10  cjswgs=3.82e-10  binunit=2.0
+ jtsswgs=1.09e-09  cigsd=3.925e-20  wlodku0=1.0
+ tpbsw=0.000894  rsw=90.88  njd=1.0
+ w0=0.0  pdiblc1=0.0  dwb=0.0
+ igbmod=0.0  dmdg=0.0  delta=0.005
+ wlodvth=1.0  etab=-0.308  permod=1.0
+ tnjtsswg=1.08  dlcig=2.5e-09  rshg=8.23
+ xgl=-3.1e-08  acde=0.4  capmod=2.0
+ noia=1.25e+42  tcjswg=0.00088  cgdo=1e-10
+ rbdb=50.0  cigbinv=0.006  jswgs=6.9e-13
+ wlod=5e-07  xrcrg2=1.0  jsd=2.85e-07
+ prt=0.0  minr=0.001  dmci=3.15e-07
+ ww=0.0  cigbacc=0.2809  wlc=0.0
+ dwj=0.0  dvt1w=0.0  mjswgd=0.541
+ aigbacc=0.01213  beta0=17.8  a1=0.0
+ alpha0=1.454e-07  dvt0=0.09708  lln=1.0
+ aigc=0.01  trnqsmod=0.0  cjs=1e-10
+ lodeta0=2.0  cf=1.0  ijthsfwd=0.01
+ ckappad=0.6  rbsb=50.0  xtsswgd=0.2886
+ ud=0.0  epsrox=3.9  rbpd=50.0
+ tempmod=0.0  alpha1=2.295  pbd=0.6882682
+ xtid=3.0  acnqsmod=0.0  nigbacc=4.05
+ rgatemod=0.0  cgbo=0.0  rsh=7.28
+ jtsswgd=1.09e-09  ngate=9e+19  tcjsw=0.000809
+ poxedge=1.0  xtsswgs=0.2886  mjswd=0.202
+ xrcrg1=12.0  pditsl=0.0  noff=1.973
+ lpeb=2.178e-08  ckappas=0.6  noib=7e+23
+ dmcgt=0.0  dsub=0.633  ll=0.0
+ cgso=1e-10  vtsswgs=10.0  jss=2.85e-07
+ ntox=1.0  dvtp1=0.0  mobmod=0.0
+ njs=1.0  cigc=1.515e-05  cjswd=1.185e-10
+ voffcv=-0.0904  mjsws=0.202  nigbinv=1.0
+ xl=-1.5e-08  ef=0.904  wl=0.0
+ rbodymod=0.0  lwc=0.0  wr=1.0
+ jswd=6.9e-13  pbs=0.6882682  dvt2w=0.0
+ wln=1.0  cdscd=0.0  ijthdrev=0.01
+ dvt0w=0.0  jsws=6.9e-13  nigc=1.0
+ b1=0.0  lint=2.595e-08  rbpb=50.0
+ noic=60800000.0  egidl=0.2624  wwc=0.0
+ dlc=2.595e-08  pbswgs=0.952  vtsswgd=10.0
+ fprout=0.0  lwn=1.0  lwl=0.0
+ ku0we=0.0  rgeomod=1.0  rbps=50.0
+ stk2=2.5e-09  k3=-3.7  dwg=0.0
+ bigc=0.00144  llodku0=1.0  bigbinv=0.03
+ tku0=0.03  xtis=3.0  steta0=-1.1e-10
+ wec=0.0  pscbe2=1e-20  pigcd=2.171
+ dvt1=0.3053  em=30000000.0  ijthdfwd=0.01
+ lodk2=1.0  xj=1.6e-07  ijthsrev=0.01
+ cle=0.6  aigbinv=0.35  njtsswg=11.6
+ tnom=25.0  ndep=5.8e+17  mjs=0.359
+ cgidl=0.25  eigbinv=1.1  xjbvd=1.0
+ phin=0.0  prwg=0.0  nsd=1e+20
+ toxref=3e-09  wwlc=0.0  mjswgs=0.541
+ lw=0.0  bigbacc=0.006537  agidl=2.593e-09
+ wpemod=1.0  dwc=0.0  cgdl=1e-10
+ tpbswg=0.00133  wint=1.02e-08  jswgd=6.9e-13
+ xgw=0.0  a2=0.995  dvtp0=1.46e-06
+ lpe0=9.921e-09  kt1l=0.0  k1=0.448
+ gbmin=1e-12  dmcg=2.05e-07  paramchk=1.0
+ kvsat=0.4  tpb=0.00149  voffl=-1.22e-09
+ xpart=1.0  pbswd=0.32  pscbe1=450000000.0
+ wwl=0.0  cjswgd=3.82e-10  ngcon=1.0
+ mjd=0.359  dvt2=-0.6939  llodvth=1.0
+ pvag=0.6279  k2we=0.0038  diomod=1.0
+ sbref=1e-05  rdsw=200.0  tcj=0.000905
+ rdsmod=1.0  aigsd=0.008379  bvs=11.25
+ dtox=5.958e-10  bgidl=1850800000.0  prwb=0.0
+ wwn=1.0  cgsl=1e-10  moin=5.346
+ bvd=11.25  version=4.5  pditsd=0.0
+ scref=1e-06  bigsd=0.0002699  rdw=90.88
+ igcmod=0.0  b0=0.0  lwlc=0.0
+ fnoimod=1.0  toxm=3.981e-09  pdits=0.0
+ web=0.0  xjbvs=1.0  k3b=1.2
+ cjsws=1.185e-10  at=122780.92233033865  lat=-0.04915896688594853
+ wat=-1.1302226989991034e-05  pat=2.8943772995650936e-11  ua=-1.0308859927240584e-09
+ lua=-8.065675143115791e-16  wua=-7.618578328072963e-19  pua=-1.7943384787225697e-24
+ ub=2.258447165650377e-18  lub=6.763761357247444e-25  wub=8.424768335374454e-28
+ pub=1.5050569876271699e-33  kvth0=2.200000027692119e-09  lkvth0=-1.0000000000000022e-08
+ wkvth0=2.1999999999999997e-06  pkvth0=-4.999999999999966e-14  pdiblc2=0.0008291696642925103
+ lpdiblc2=1.4536073559324822e-09  wpdiblc2=-1.29049378877375e-13  ppdiblc2=9.315099972038357e-19
+ nfactor=0.9477397152510624  lnfactor=1.9753305453421756e-08  wnfactor=-6.701346567921066e-10
+ pnfactor=2.243130335434995e-16  width=0.00091006  lwidth=0.0
+ wwidth=-9.0273009e-09  pwidth=-0.0  cit=0.0009465180443312474
+ lcit=-1.1759954326866317e-09  wcit=-2.5089512195668003e-13  pcit=-4.707113576302157e-19
+ length=1.1200000000000001e-05  llength=-1.2e-11  wlength=-0.0
+ plength=-0.0  u0=0.03118183036403007  lu0=-6.537469408696761e-09
+ wu0=-4.178334517077401e-12  pu0=-1.3596944316947871e-17  tvoff=0.0015000000011010808
+ ltvoff=-1.1010808223141062e-17  wtvoff=-9.91005772507349e-16  ptvoff=9.910057725073492e-21
+ ags=0.47156251091665413  lags=2.9064308824896436e-07  wags=9.674641789188233e-11
+ pags=-4.341203564329805e-16  ute=-1.877555307025886  lute=6.56500204801077e-07
+ wute=-3.773654175800992e-10  pute=3.359515923573363e-16  ku0=-3.2000000003210985e-08
+ lku0=2e-07  wku0=7e-07  pku0=-5.0000000000000235e-14
+ voff=-0.13092333657620375  lvoff=3.722093133227646e-09  wvoff=4.50225617033324e-12
+ pvoff=1.9760526510514094e-17  eta0=0.21978025581020122  leta0=7.904111354535016e-08
+ weta0=-1.279607190456618e-10  peta0=1.1258566491112063e-16  kt1=-0.2434755318726358
+ lkt1=-2.6317166050582836e-08  wkt1=-3.8355678968595995e-11  pkt1=1.479374490299215e-17
+ kt2=-0.0552387291671559  lkt2=4.70378185648151e-10  wkt2=-3.5070773883843067e-13
+ pkt2=7.943067741244588e-19  kvth0we=0.003507996439698736  lkvth0we=-1.5231736700963498e-10
+ wkvth0we=1.489663417622327e-14  pkvth0we=-1.8441943357385676e-20  vth0=0.44005826683557997
+ lvth0=-5.2666695691318685e-09  wvth0=-1.7760568537667382e-11  pvth0=-1.3998702402032583e-17
+ a0=1.061253704532693  la0=1.1115945584095107e-07  wa0=-1.472661504096953e-10
+ pa0=6.908343527599451e-16  keta=-0.04426684438260118  lketa=-7.085195299615667e-08
+ wketa=-1.5651635180586923e-11  pketa=-5.245066184398879e-17  uc1=-7.367887160814441e-11
+ luc1=-6.999308280762896e-17  wuc1=-4.7849719516107426e-20  puc1=-2.3352637243598165e-25
+ ub1=-4.417700971405919e-18  lub1=-1.2141185063490696e-25  wub1=-9.528330431857982e-29
+ pub1=-1.241265412576195e-33  ua1=2.2441723858984264e-09  lua1=9.704925115921415e-16
+ wua1=-3.82605427691841e-19  pua1=6.7093034559125845e-25  pclm=0.7307071821441132
+ lpclm=-1.1799032969337981e-07  wpclm=9.487459681608464e-11  ppclm=-1.6729289812825703e-16
+ k2=0.04441523255496016  lk2=-7.296847308328636e-10  wk2=-3.3683264208341145e-12
+ pk2=9.230557258153534e-18  vsat=73189.23417600353  lvsat=0.0013939261013629072
+ wvsat=4.996308803845057e-06  pvsat=-5.166983630324807e-13  uc=1.9827874945007947e-10
+ luc=-6.587290600175829e-17  wuc=1.9221156257782366e-19  puc=-1.5445583861440353e-25
+ lmin=1.2e-006  lmax=1e-005  wmin=1.003e-005
+ wmax=90.003e-05  

    3:  type=n
+ drout=0.5  saref=1e-05  pbsws=0.32
+ llc=0.0  pdiblcb=0.0  xw=0.0
+ cdsc=0.0  clc=1e-07  minv=-0.34
+ pbswgd=0.952  cdscb=0.0  toxe=3.981e-09
+ cjd=1e-10  cjswgs=3.82e-10  binunit=2.0
+ jtsswgs=1.09e-09  cigsd=3.925e-20  wlodku0=1.0
+ tpbsw=0.000894  rsw=90.88  njd=1.0
+ w0=0.0  pdiblc1=0.0  dwb=0.0
+ igbmod=0.0  dmdg=0.0  delta=0.005
+ wlodvth=1.0  etab=-0.308  permod=1.0
+ tnjtsswg=1.08  dlcig=2.5e-09  rshg=8.23
+ xgl=-3.1e-08  acde=0.4  capmod=2.0
+ noia=1.25e+42  tcjswg=0.00088  cgdo=1e-10
+ rbdb=50.0  cigbinv=0.006  jswgs=6.9e-13
+ wlod=5e-07  xrcrg2=1.0  jsd=2.85e-07
+ prt=0.0  minr=0.001  dmci=3.15e-07
+ ww=0.0  cigbacc=0.2809  wlc=0.0
+ dwj=0.0  dvt1w=0.0  mjswgd=0.541
+ aigbacc=0.01213  beta0=17.8  a1=0.0
+ alpha0=1.454e-07  dvt0=0.09708  lln=1.0
+ aigc=0.01  trnqsmod=0.0  cjs=1e-10
+ lodeta0=2.0  cf=1.0  ijthsfwd=0.01
+ ckappad=0.6  rbsb=50.0  xtsswgd=0.2886
+ ud=0.0  epsrox=3.9  rbpd=50.0
+ tempmod=0.0  alpha1=2.295  pbd=0.6882682
+ xtid=3.0  acnqsmod=0.0  nigbacc=4.05
+ rgatemod=0.0  cgbo=0.0  rsh=7.28
+ jtsswgd=1.09e-09  ngate=9e+19  tcjsw=0.000809
+ poxedge=1.0  xtsswgs=0.2886  mjswd=0.202
+ xrcrg1=12.0  pditsl=0.0  noff=1.973
+ lpeb=2.178e-08  ckappas=0.6  noib=7e+23
+ dmcgt=0.0  dsub=0.633  ll=0.0
+ cgso=1e-10  vtsswgs=10.0  jss=2.85e-07
+ ntox=1.0  dvtp1=0.0  mobmod=0.0
+ njs=1.0  cigc=1.515e-05  cjswd=1.185e-10
+ voffcv=-0.0904  mjsws=0.202  nigbinv=1.0
+ xl=-1.5e-08  ef=0.904  wl=0.0
+ rbodymod=0.0  lwc=0.0  wr=1.0
+ jswd=6.9e-13  pbs=0.6882682  dvt2w=0.0
+ wln=1.0  cdscd=0.0  ijthdrev=0.01
+ dvt0w=0.0  jsws=6.9e-13  nigc=1.0
+ b1=0.0  lint=2.595e-08  rbpb=50.0
+ noic=60800000.0  egidl=0.2624  wwc=0.0
+ dlc=2.595e-08  pbswgs=0.952  vtsswgd=10.0
+ fprout=0.0  lwn=1.0  lwl=0.0
+ ku0we=0.0  rgeomod=1.0  rbps=50.0
+ stk2=2.5e-09  k3=-3.7  dwg=0.0
+ bigc=0.00144  llodku0=1.0  bigbinv=0.03
+ tku0=0.03  xtis=3.0  steta0=-1.1e-10
+ wec=0.0  pscbe2=1e-20  pigcd=2.171
+ dvt1=0.3053  em=30000000.0  ijthdfwd=0.01
+ lodk2=1.0  xj=1.6e-07  ijthsrev=0.01
+ cle=0.6  aigbinv=0.35  njtsswg=11.6
+ tnom=25.0  ndep=5.8e+17  mjs=0.359
+ cgidl=0.25  eigbinv=1.1  xjbvd=1.0
+ phin=0.0  prwg=0.0  nsd=1e+20
+ toxref=3e-09  wwlc=0.0  mjswgs=0.541
+ lw=0.0  bigbacc=0.006537  agidl=2.593e-09
+ wpemod=1.0  dwc=0.0  cgdl=1e-10
+ tpbswg=0.00133  wint=1.02e-08  jswgd=6.9e-13
+ xgw=0.0  a2=0.995  dvtp0=1.46e-06
+ lpe0=9.921e-09  kt1l=0.0  k1=0.448
+ gbmin=1e-12  dmcg=2.05e-07  paramchk=1.0
+ kvsat=0.4  tpb=0.00149  voffl=-1.22e-09
+ xpart=1.0  pbswd=0.32  pscbe1=450000000.0
+ wwl=0.0  cjswgd=3.82e-10  ngcon=1.0
+ mjd=0.359  dvt2=-0.6939  llodvth=1.0
+ pvag=0.6279  k2we=0.0038  diomod=1.0
+ sbref=1e-05  rdsw=200.0  tcj=0.000905
+ rdsmod=1.0  aigsd=0.008379  bvs=11.25
+ dtox=5.958e-10  bgidl=1850800000.0  prwb=0.0
+ wwn=1.0  cgsl=1e-10  moin=5.346
+ bvd=11.25  version=4.5  pditsd=0.0
+ scref=1e-06  bigsd=0.0002699  rdw=90.88
+ igcmod=0.0  b0=0.0  lwlc=0.0
+ fnoimod=1.0  toxm=3.981e-09  pdits=0.0
+ web=0.0  xjbvs=1.0  k3b=1.2
+ cjsws=1.185e-10  at=123508.84626839616  lat=-0.05003247561161752
+ wat=2.2175611200982035e-05  pat=-1.1229632833516749e-11  ua=-2.261786432228668e-09
+ lua=6.70513013093952e-16  wua=-3.525468853603945e-18  pua=1.5219947462334088e-24
+ ub=3.372148194660233e-18  lub=-6.600650990870829e-25  wub=3.354203307858563e-27
+ pub=-1.5090147815581719e-33  kvth0=2.1999999880617516e-09  lkvth0=-1.0000000000000002e-08
+ wkvth0=2.2e-06  pkvth0=-4.999999999999994e-14  pdiblc2=0.002375536819114061
+ lpdiblc2=-4.0203322985337895e-10  wpdiblc2=1.2679110359676101e-12  ppdiblc2=-7.448425006101468e-19
+ nfactor=1.0326253322697472  lnfactor=-8.210943496899993e-08  wnfactor=-4.81630254848504e-10
+ pnfactor=-1.8922487888237412e-18  width=0.00091006  lwidth=0.0
+ wwidth=-9.0273009e-09  pwidth=-0.0  cit=-0.00045106432762584295
+ lcit=5.011034136618766e-10  wcit=-1.2507998620823015e-12  pcit=7.291743305213549e-19
+ length=1.7e-06  llength=-6.000000000000001e-13  wlength=-0.0
+ plength=-0.0  u0=0.021379404541945785  lu0=5.225441577804384e-09
+ wu0=-2.4537854823387035e-11  pu0=1.0834480050623694e-17  tvoff=0.0015084442907566812
+ ltvoff=-1.0133158597528886e-11  wtvoff=2.905429569148385e-13  ptvoff=-3.399306974997416e-19
+ ags=0.8547971126992053  lags=-1.692384338900971e-07  wags=1.1907468411248912e-10
+ pags=-4.609142758977087e-16  ute=-1.3793409130733894  lute=5.864293205808146e-08
+ wute=-1.702646247941282e-10  pute=8.743064101417112e-17  ku0=-3.200000008655754e-08
+ lku0=2.0000000000000007e-07  wku0=6.999999999999999e-07  pku0=-4.999999999999994e-14
+ voff=-0.11969288133393097  lvoff=-9.75445315749968e-09  wvoff=3.598030861337649e-11
+ pvoff=-1.801313642113781e-17  eta0=0.28430341597762077  leta0=1.6133213444467442e-09
+ weta0=-2.0809123642538476e-11  peta0=-1.599624957262735e-17  kt1=-0.266043778582746
+ lkt1=7.647300015494119e-10  wkt1=-4.261266327112629e-11  pkt1=1.990212606602851e-17
+ kt2=-0.054659619443616574  lkt2=-2.2455348259904337e-10  wkt2=1.530734509956225e-12
+ pkt2=-1.4634239244291283e-18  kvth0we=0.0035002690487056583  lkvth0we=-1.4304449781794187e-10
+ wkvth0we=1.4022517963707082e-14  pkvth0we=-1.739300390236625e-20  vth0=0.4238521782595884
+ lvth0=1.4180636722058063e-08  wvth0=-4.729234867031325e-11  pvth0=2.1439433757142467e-17
+ a0=1.650736812696497  la0=-5.962202739556135e-07  wa0=1.120039057708915e-09
+ pa0=-8.299318969823875e-16  keta=-0.114998425526187  lketa=1.4025944376146311e-08
+ wketa=-9.570105020142406e-11  pketa=4.360863618101578e-17  uc1=-2.2493093669564593e-10
+ luc1=1.1150939529737282e-16  wuc1=-3.933941742789809e-19  puc1=1.8112697327946655e-25
+ ub1=-5.161117386589827e-18  lub1=7.706878475857845e-25  wub1=-1.8667742361783205e-27
+ pub1=8.845237056554941e-34  ua1=3.1927494863685834e-09  lua1=-1.6780000897204732e-16
+ wua1=2.1734694810487824e-19  pua1=-4.901250536480471e-26  pclm=0.6159835009705106
+ lpclm=1.967808771494359e-08  wpclm=-6.618995136377891e-11  ppclm=2.598455968757924e-17
+ k2=0.04586609837041971  lk2=-2.4707237093843192e-09  wk2=5.651810654645435e-12
+ pk2=-1.5936072324219271e-18  vsat=81748.66846973423  lvsat=-0.008877395051113946
+ wvsat=1.4299144387053025e-05  pvsat=-1.1680101062882044e-11  uc=1.6191496173086882e-10
+ luc=-2.2236360738705478e-17  wuc=1.321609090286962e-19  puc=-8.239505435545056e-26
+ lmin=5e-007  lmax=1.2e-006  wmin=1.003e-005
+ wmax=90.003e-05  

    4:  type=n
+ drout=0.5  saref=1e-05  pbsws=0.32
+ llc=0.0  pdiblcb=0.0  xw=0.0
+ cdsc=0.0  clc=1e-07  minv=-0.34
+ pbswgd=0.952  cdscb=0.0  toxe=3.981e-09
+ cjd=1e-10  cjswgs=3.82e-10  binunit=2.0
+ jtsswgs=1.09e-09  cigsd=3.925e-20  wlodku0=1.0
+ tpbsw=0.000894  rsw=90.88  njd=1.0
+ w0=0.0  pdiblc1=0.0  dwb=0.0
+ igbmod=0.0  dmdg=0.0  delta=0.005
+ wlodvth=1.0  etab=-0.308  permod=1.0
+ tnjtsswg=1.08  dlcig=2.5e-09  rshg=8.23
+ xgl=-3.1e-08  acde=0.4  capmod=2.0
+ noia=1.25e+42  tcjswg=0.00088  cgdo=1e-10
+ rbdb=50.0  cigbinv=0.006  jswgs=6.9e-13
+ wlod=5e-07  xrcrg2=1.0  jsd=2.85e-07
+ prt=0.0  minr=0.001  dmci=3.15e-07
+ ww=0.0  cigbacc=0.2809  wlc=0.0
+ dwj=0.0  dvt1w=0.0  mjswgd=0.541
+ aigbacc=0.01213  beta0=17.8  a1=0.0
+ alpha0=1.454e-07  dvt0=0.09708  lln=1.0
+ aigc=0.01  trnqsmod=0.0  cjs=1e-10
+ lodeta0=2.0  cf=1.0  ijthsfwd=0.01
+ ckappad=0.6  rbsb=50.0  xtsswgd=0.2886
+ ud=0.0  epsrox=3.9  rbpd=50.0
+ tempmod=0.0  alpha1=2.295  pbd=0.6882682
+ xtid=3.0  acnqsmod=0.0  nigbacc=4.05
+ rgatemod=0.0  cgbo=0.0  rsh=7.28
+ jtsswgd=1.09e-09  ngate=9e+19  tcjsw=0.000809
+ poxedge=1.0  xtsswgs=0.2886  mjswd=0.202
+ xrcrg1=12.0  pditsl=0.0  noff=1.973
+ lpeb=2.178e-08  ckappas=0.6  noib=7e+23
+ dmcgt=0.0  dsub=0.633  ll=0.0
+ cgso=1e-10  vtsswgs=10.0  jss=2.85e-07
+ ntox=1.0  dvtp1=0.0  mobmod=0.0
+ njs=1.0  cigc=1.515e-05  cjswd=1.185e-10
+ voffcv=-0.0904  mjsws=0.202  nigbinv=1.0
+ xl=-1.5e-08  ef=0.904  wl=0.0
+ rbodymod=0.0  lwc=0.0  wr=1.0
+ jswd=6.9e-13  pbs=0.6882682  dvt2w=0.0
+ wln=1.0  cdscd=0.0  ijthdrev=0.01
+ dvt0w=0.0  jsws=6.9e-13  nigc=1.0
+ b1=0.0  lint=2.595e-08  rbpb=50.0
+ noic=60800000.0  egidl=0.2624  wwc=0.0
+ dlc=2.595e-08  pbswgs=0.952  vtsswgd=10.0
+ fprout=0.0  lwn=1.0  lwl=0.0
+ ku0we=0.0  rgeomod=1.0  rbps=50.0
+ stk2=2.5e-09  k3=-3.7  dwg=0.0
+ bigc=0.00144  llodku0=1.0  bigbinv=0.03
+ tku0=0.03  xtis=3.0  steta0=-1.1e-10
+ wec=0.0  pscbe2=1e-20  pigcd=2.171
+ dvt1=0.3053  em=30000000.0  ijthdfwd=0.01
+ lodk2=1.0  xj=1.6e-07  ijthsrev=0.01
+ cle=0.6  aigbinv=0.35  njtsswg=11.6
+ tnom=25.0  ndep=5.8e+17  mjs=0.359
+ cgidl=0.25  eigbinv=1.1  xjbvd=1.0
+ phin=0.0  prwg=0.0  nsd=1e+20
+ toxref=3e-09  wwlc=0.0  mjswgs=0.541
+ lw=0.0  bigbacc=0.006537  agidl=2.593e-09
+ wpemod=1.0  dwc=0.0  cgdl=1e-10
+ tpbswg=0.00133  wint=1.02e-08  jswgd=6.9e-13
+ xgw=0.0  a2=0.995  dvtp0=1.46e-06
+ lpe0=9.921e-09  kt1l=0.0  k1=0.448
+ gbmin=1e-12  dmcg=2.05e-07  paramchk=1.0
+ kvsat=0.4  tpb=0.00149  voffl=-1.22e-09
+ xpart=1.0  pbswd=0.32  pscbe1=450000000.0
+ wwl=0.0  cjswgd=3.82e-10  ngcon=1.0
+ mjd=0.359  dvt2=-0.6939  llodvth=1.0
+ pvag=0.6279  k2we=0.0038  diomod=1.0
+ sbref=1e-05  rdsw=200.0  tcj=0.000905
+ rdsmod=1.0  aigsd=0.008379  bvs=11.25
+ dtox=5.958e-10  bgidl=1850800000.0  prwb=0.0
+ wwn=1.0  cgsl=1e-10  moin=5.346
+ bvd=11.25  version=4.5  pditsd=0.0
+ scref=1e-06  bigsd=0.0002699  rdw=90.88
+ igcmod=0.0  b0=0.0  lwlc=0.0
+ fnoimod=1.0  toxm=3.981e-09  pdits=0.0
+ web=0.0  xjbvs=1.0  k3b=1.2
+ cjsws=1.185e-10  at=26309.157037708206  lat=-0.0014326309962735442
+ wat=-7.230239945737901e-07  pat=2.1968476427961207e-13  ua=-8.747707733884339e-10
+ lua=-2.299481632616503e-17  wua=-5.636879483836766e-19  pua=4.1104293623274854e-26
+ ub=1.729803056530021e-18  lub=1.6110746997802315e-25  wub=1.5444062888732478e-28
+ pub=9.086655792744718e-35  kvth0=2.1999999708768432e-09  lkvth0=-9.999999999999995e-09
+ wkvth0=2.2000000000000005e-06  pkvth0=-5.000000000000012e-14  pdiblc2=0.001518433919246313
+ lpdiblc2=2.6518220080495148e-11  wpdiblc2=-5.643717436449426e-13  ppdiblc2=1.7129888919612953e-19
+ nfactor=0.8086922732634605  lnfactor=2.985709453414341e-08  wnfactor=-5.786751528224971e-10
+ pnfactor=4.663020019817287e-17  width=0.00091006  lwidth=0.0
+ wwidth=-9.0273009e-09  pwidth=-0.0  cit=0.000502828209808427
+ lcit=2.4157144944741537e-11  wcit=5.6002407412934343e-14  pcit=7.577319577373705e-20
+ length=6.8e-07  llength=-9e-14  wlength=-0.0
+ plength=-0.0  u0=0.029917032837237803  lu0=9.56627430158376e-10
+ wu0=-5.464633666970631e-12  pu0=1.2978694724154925e-18  tvoff=0.0013417544344485168
+ ltvoff=7.32117695565535e-11  wtvoff=-4.880511826839374e-13  ptvoff=4.9366372299646324e-20
+ ags=0.37396254083493674  lags=7.117885204203721e-08  wags=-1.148570977541016e-09
+ pags=1.7290855492904376e-16  ute=-1.2670469368111767  lute=2.4959439269749983e-09
+ wute=-2.0519062412198722e-11  pute=1.255785982320639e-17  ku0=-3.19999999428514e-08
+ lku0=2e-07  wku0=7.000000000000004e-07  pku0=-5.0000000000000203e-14
+ voff=-0.1431887207068978  lvoff=1.9934665289837397e-09  wvoff=-3.442031690213563e-12
+ pvoff=1.698033730657215e-18  eta0=0.28753007575881734  leta0=-8.546151557342923e-15
+ weta0=-6.818520836010375e-11  peta0=7.691792786155285e-18  kt1=-0.2543050748466977
+ lkt1=-5.10462186647476e-09  wkt1=3.377765502373071e-12  pkt1=-3.093088320721172e-18
+ kt2=-0.05506074727664949  lkt2=-2.3989566082584644e-11  wkt2=-1.6635709086794507e-12
+ pkt2=1.3372878488870944e-19  kvth0we=0.003499879937483461  lkvth0we=-1.4284994220684322e-10
+ wkvth0we=1.4077853385130199e-14  pkvth0we=-1.7420671613077808e-20  vth0=0.4576422171724722
+ lvth0=-2.7143827343838764e-09  wvth0=-4.2053652090324374e-12  pvth0=-1.0405797349793826e-19
+ a0=0.3548359587056988  la0=5.173015303978546e-08  wa0=-6.212620869080288e-10
+ pa0=4.071867532664737e-17  keta=-0.09704964846780828  lketa=5.051555846956949e-09
+ wketa=-8.973021632925462e-12  pketa=2.4462189676648655e-19  uc1=-2.5135846360532773e-11
+ luc1=1.1611850129816247e-17  wuc1=-6.900594562183902e-20  puc1=1.8932858950836224e-26
+ ub1=-3.4697804627014925e-18  lub1=-7.498061435838298e-26  wub1=1.8581253659574814e-28
+ pub1=-1.417696807315401e-34  ua1=2.723897953360859e-09  lua1=6.662575753181508e-17
+ wua1=-1.3381048285085267e-19  pua1=1.2656621011306073e-25  pclm=0.6451314063089675
+ lpclm=5.104135045715048e-09  wpclm=-5.602368831964647e-11  ppclm=2.0901428165513024e-17
+ k2=0.040287717182418095  lk2=3.1846688461648414e-10  wk2=4.26565339335087e-12
+ pk2=-9.005286017746448e-19  vsat=63173.73064761192  lvsat=0.0004100738599472139
+ wvsat=-1.00050592194962e-05  pvsat=4.720007403925665e-13  uc=8.658424138622487e-11
+ luc=1.5428999433616485e-17  wuc=-5.1199308991687953e-20  puc=9.285054654741502e-27
+ lmin=1.8e-07  lmax=5e-007  wmin=1.003e-005
+ wmax=90.003e-05  

    5:  type=n
+ drout=0.5  saref=1e-05  pbsws=0.32
+ llc=0.0  pdiblcb=0.0  xw=0.0
+ cdsc=0.0  clc=1e-07  minv=-0.34
+ pbswgd=0.952  cdscb=0.0  toxe=3.981e-09
+ cjd=1e-10  cjswgs=3.82e-10  binunit=2.0
+ jtsswgs=1.09e-09  cigsd=3.925e-20  wlodku0=1.0
+ tpbsw=0.000894  rsw=90.88  njd=1.0
+ w0=0.0  pdiblc1=0.0  dwb=0.0
+ igbmod=0.0  dmdg=0.0  delta=0.005
+ wlodvth=1.0  etab=-0.308  permod=1.0
+ tnjtsswg=1.08  dlcig=2.5e-09  rshg=8.23
+ xgl=-3.1e-08  acde=0.4  capmod=2.0
+ noia=1.25e+42  tcjswg=0.00088  cgdo=1e-10
+ rbdb=50.0  cigbinv=0.006  jswgs=6.9e-13
+ wlod=5e-07  xrcrg2=1.0  jsd=2.85e-07
+ prt=0.0  minr=0.001  dmci=3.15e-07
+ ww=0.0  cigbacc=0.2809  wlc=0.0
+ dwj=0.0  dvt1w=0.0  mjswgd=0.541
+ aigbacc=0.01213  beta0=17.8  a1=0.0
+ alpha0=1.454e-07  dvt0=0.09708  lln=1.0
+ aigc=0.01  trnqsmod=0.0  cjs=1e-10
+ lodeta0=2.0  cf=1.0  ijthsfwd=0.01
+ ckappad=0.6  rbsb=50.0  xtsswgd=0.2886
+ ud=0.0  epsrox=3.9  rbpd=50.0
+ tempmod=0.0  alpha1=2.295  pbd=0.6882682
+ xtid=3.0  acnqsmod=0.0  nigbacc=4.05
+ rgatemod=0.0  cgbo=0.0  rsh=7.28
+ jtsswgd=1.09e-09  ngate=9e+19  tcjsw=0.000809
+ poxedge=1.0  xtsswgs=0.2886  mjswd=0.202
+ xrcrg1=12.0  pditsl=0.0  noff=1.973
+ lpeb=2.178e-08  ckappas=0.6  noib=7e+23
+ dmcgt=0.0  dsub=0.633  ll=0.0
+ cgso=1e-10  vtsswgs=10.0  jss=2.85e-07
+ ntox=1.0  dvtp1=0.0  mobmod=0.0
+ njs=1.0  cigc=1.515e-05  cjswd=1.185e-10
+ voffcv=-0.0904  mjsws=0.202  nigbinv=1.0
+ xl=-1.5e-08  ef=0.904  wl=0.0
+ rbodymod=0.0  lwc=0.0  wr=1.0
+ jswd=6.9e-13  pbs=0.6882682  dvt2w=0.0
+ wln=1.0  cdscd=0.0  ijthdrev=0.01
+ dvt0w=0.0  jsws=6.9e-13  nigc=1.0
+ b1=0.0  lint=2.595e-08  rbpb=50.0
+ noic=60800000.0  egidl=0.2624  wwc=0.0
+ dlc=2.595e-08  pbswgs=0.952  vtsswgd=10.0
+ fprout=0.0  lwn=1.0  lwl=0.0
+ ku0we=0.0  rgeomod=1.0  rbps=50.0
+ stk2=2.5e-09  k3=-3.7  dwg=0.0
+ bigc=0.00144  llodku0=1.0  bigbinv=0.03
+ tku0=0.03  xtis=3.0  steta0=-1.1e-10
+ wec=0.0  pscbe2=1e-20  pigcd=2.171
+ dvt1=0.3053  em=30000000.0  ijthdfwd=0.01
+ lodk2=1.0  xj=1.6e-07  ijthsrev=0.01
+ cle=0.6  aigbinv=0.35  njtsswg=11.6
+ tnom=25.0  ndep=5.8e+17  mjs=0.359
+ cgidl=0.25  eigbinv=1.1  xjbvd=1.0
+ phin=0.0  prwg=0.0  nsd=1e+20
+ toxref=3e-09  wwlc=0.0  mjswgs=0.541
+ lw=0.0  bigbacc=0.006537  agidl=2.593e-09
+ wpemod=1.0  dwc=0.0  cgdl=1e-10
+ tpbswg=0.00133  wint=1.02e-08  jswgd=6.9e-13
+ xgw=0.0  a2=0.995  dvtp0=1.46e-06
+ lpe0=9.921e-09  kt1l=0.0  k1=0.448
+ gbmin=1e-12  dmcg=2.05e-07  paramchk=1.0
+ kvsat=0.4  tpb=0.00149  voffl=-1.22e-09
+ xpart=1.0  pbswd=0.32  pscbe1=450000000.0
+ wwl=0.0  cjswgd=3.82e-10  ngcon=1.0
+ mjd=0.359  dvt2=-0.6939  llodvth=1.0
+ pvag=0.6279  k2we=0.0038  diomod=1.0
+ sbref=1e-05  rdsw=200.0  tcj=0.000905
+ rdsmod=1.0  aigsd=0.008379  bvs=11.25
+ dtox=5.958e-10  bgidl=1850800000.0  prwb=0.0
+ wwn=1.0  cgsl=1e-10  moin=5.346
+ bvd=11.25  version=4.5  pditsd=0.0
+ scref=1e-06  bigsd=0.0002699  rdw=90.88
+ igcmod=0.0  b0=0.0  lwlc=0.0
+ fnoimod=1.0  toxm=3.981e-09  pdits=0.0
+ web=0.0  xjbvs=1.0  k3b=1.2
+ cjsws=1.185e-10  at=117035.39976409091  lat=0.0003121180136364072
+ wat=0.007981636629168204  pat=1.8048706322706796e-10  ua=-1.2044086850068178e-09
+ lua=6.239241045449863e-18  wua=9.253634061758858e-16  pua=-1.1172698835901774e-23
+ ub=2.4236038636835228e-18  lub=-5.213158897727506e-27  wub=-9.728272588832331e-25
+ pub=9.326226494204191e-33  kvth0=2.1999999305135114e-09  lkvth0=-9.999999999999618e-09
+ wkvth0=2.2000000000000005e-06  pkvth0=-5.000000000000349e-14  pdiblc2=0.0009719355308329545
+ lpdiblc2=-9.973868931817206e-12  wpdiblc2=3.5412221970466247e-11  ppdiblc2=5.82206788613449e-18
+ nfactor=0.8865174311559944  lnfactor=-2.5403221079608516e-10  wnfactor=6.333382848208765e-07
+ pnfactor=1.408809764282962e-15  width=1.126e-05  lwidth=-0.0
+ wwidth=-1.2336900000000002e-11  pwidth=-0.0  cit=0.0007988570972159091
+ lcit=7.84631931818225e-12  wcit=2.9363155982443207e-10  pcit=-2.83503776136696e-18
+ length=3e-05  llength=-2.0000000000000003e-10  wlength=3.1128887346586584e-27
+ plength=-3.1128887346586585e-32  u0=0.02997789320966477  lu0=5.0017533977285113e-11
+ wu0=5.471189501712335e-09  pu0=-8.487275879207165e-17  tvoff=0.0014999999080377842
+ ltvoff=1.839244318118892e-15  wtvoff=9.223810255366244e-16  ptvoff=-1.844762051073249e-20
+ ags=0.5059684594196023  lags=-1.5769743011354348e-09  wags=-5.165562066861084e-08
+ pags=-2.8598569596033773e-15  ute=-1.8450015913843751  lute=-4.5041723124976275e-09
+ wute=3.359141828977816e-07  pute=2.1566920443741394e-15  ku0=-3.1999999988794484e-08
+ lku0=1.9999999999999967e-07  wku0=6.999999999999999e-07  pku0=-4.999999999999727e-14
+ voff=-0.12992512938153697  lvoff=-3.4664869260775014e-11  wvoff=-6.249799765309496e-09